SIM
 OpenBabel12282418233D

 21 21  0  0  0  0  0  0  0  0999 V2000
    0.9054   -0.1208    0.9250 C   0  0  0  0  0  0  0  0  0  0  0  0
    2.3502    0.0218    1.2818 C   0  0  0  0  0  0  0  0  0  0  0  0
    2.6977    0.9274    2.0239 O   0  0  0  0  0  0  0  0  0  0  0  0
    3.2326   -0.9020    0.8103 O   0  0  0  0  0  0  0  0  0  0  0  0
    4.5917   -0.9257    0.8501 C   0  0  0  0  0  0  0  0  0  0  0  0
    5.3418    0.2454    1.1126 C   0  0  0  0  0  0  0  0  0  0  0  0
    6.7334    0.2148    1.1447 C   0  0  0  0  0  0  0  0  0  0  0  0
    7.4092   -0.9750    0.9143 C   0  0  0  0  0  0  0  0  0  0  0  0
    6.6973   -2.1408    0.6446 C   0  0  0  0  0  0  0  0  0  0  0  0
    5.2835   -2.1501    0.6014 C   0  0  0  0  0  0  0  0  0  0  0  0
    4.6132   -3.4696    0.2975 C   0  0  0  0  0  0  0  0  0  0  0  0
    3.2739   -3.6506    0.2151 O   0  0  0  0  0  0  0  0  0  0  0  0
    5.3132   -4.4532    0.1091 O   0  0  0  0  0  0  0  0  0  0  0  0
    0.3006    0.6842    1.3948 H   0  0  0  0  0  0  0  0  0  0  0  0
    0.5322   -1.1044    1.2790 H   0  0  0  0  0  0  0  0  0  0  0  0
    0.7894   -0.0616   -0.1771 H   0  0  0  0  0  0  0  0  0  0  0  0
    4.8736    1.2009    1.2826 H   0  0  0  0  0  0  0  0  0  0  0  0
    7.2905    1.1210    1.3461 H   0  0  0  0  0  0  0  0  0  0  0  0
    8.4913   -0.9950    0.9396 H   0  0  0  0  0  0  0  0  0  0  0  0
    7.2669   -3.0444    0.4668 H   0  0  0  0  0  0  0  0  0  0  0  0
    2.5922   -2.9844    0.3320 H   0  0  0  0  0  0  0  0  0  0  0  0
  1  2  1  0  0  0  0
  1 14  1  0  0  0  0
  1 15  1  0  0  0  0
  1 16  1  0  0  0  0
  2  3  2  0  0  0  0
  2  4  1  0  0  0  0
  4  5  1  0  0  0  0
  5  6  2  0  0  0  0
  5 10  1  0  0  0  0
  6  7  1  0  0  0  0
  6 17  1  0  0  0  0
  7  8  2  0  0  0  0
  7 18  1  0  0  0  0
  8  9  1  0  0  0  0
  8 19  1  0  0  0  0
  9 10  2  0  0  0  0
  9 20  1  0  0  0  0
 10 11  1  0  0  0  0
 11 12  1  0  0  0  0
 11 13  2  0  0  0  0
 12 21  1  0  0  0  0
M  END
>  <Energy>
138.785

$$$$
