REMARK SMILES CC(=O)Oc1ccccc1C(=O)O
REMARK SMILES IDX 5 1 6 2 7 3 8 4 9 5 10 6 4 7 2 8 1 9 3 10 11 11 12 12 13 13
REMARK H PARENT 13 14
REMARK Flexibility Score: inf
ROOT
ATOM      1  C   UNL A   1       4.592  -0.926   0.850  1.00  0.00     0.145 A 
ATOM      2  C   UNL A   1       5.342   0.245   1.113  1.00  0.00     0.048 A 
ATOM      3  C   UNL A   1       6.733   0.215   1.145  1.00  0.00     0.004 A 
ATOM      4  C   UNL A   1       7.409  -0.975   0.914  1.00  0.00     0.001 A 
ATOM      5  C   UNL A   1       6.697  -2.141   0.645  1.00  0.00     0.019 A 
ATOM      6  C   UNL A   1       5.284  -2.150   0.601  1.00  0.00     0.102 A 
ENDROOT
BRANCH   1   7
ATOM      7  O   UNL A   1       3.233  -0.902   0.810  1.00  0.00    -0.426 OA
BRANCH   7   8
ATOM      8  C   UNL A   1       2.350   0.022   1.282  1.00  0.00     0.308 C 
ATOM      9  C   UNL A   1       0.905  -0.121   0.925  1.00  0.00     0.139 C 
ATOM     10  O   UNL A   1       2.698   0.927   2.024  1.00  0.00    -0.252 OA
ENDBRANCH   7   8
ENDBRANCH   1   7
BRANCH   6  11
ATOM     11  C   UNL A   1       4.613  -3.470   0.297  1.00  0.00     0.339 C 
ATOM     12  O   UNL A   1       5.313  -4.453   0.109  1.00  0.00    -0.246 OA
BRANCH  11  13
ATOM     13  O   UNL A   1       3.274  -3.651   0.215  1.00  0.00    -0.478 OA
ATOM     14  H   UNL A   1       2.592  -2.984   0.332  1.00  0.00     0.297 HD
ENDBRANCH  11  13
ENDBRANCH   6  11
TORSDOF 4
