MODEL 1
REMARK VINA RESULT:    -5.478      0.000      0.000
REMARK INTER + INTRA:          -6.924
REMARK INTER:                  -6.599
REMARK INTRA:                  -0.325
REMARK UNBOUND:                -0.325
REMARK SMILES CC(=O)Oc1ccccc1C(=O)O
REMARK SMILES IDX 5 1 6 2 7 3 8 4 9 5 10 6 4 7 2 8 1 9 3 10 11 11 12 12 13 13
REMARK H PARENT 13 14
REMARK Flexibility Score: inf
ROOT
ATOM      1  C   UNL A   1     -22.400 -43.946  18.457  1.00  0.00     0.145 A 
ATOM      2  C   UNL A   1     -22.457 -42.691  19.109  1.00  0.00     0.048 A 
ATOM      3  C   UNL A   1     -23.657 -42.197  19.612  1.00  0.00     0.004 A 
ATOM      4  C   UNL A   1     -24.824 -42.937  19.481  1.00  0.00     0.001 A 
ATOM      5  C   UNL A   1     -24.796 -44.179  18.850  1.00  0.00     0.019 A 
ATOM      6  C   UNL A   1     -23.596 -44.715  18.330  1.00  0.00     0.102 A 
ENDROOT
BRANCH   1   7
ATOM      7  O   UNL A   1     -21.229 -44.438  17.970  1.00  0.00    -0.426 OA
BRANCH   7   8
ATOM      8  C   UNL A   1     -20.690 -44.364  16.721  1.00  0.00     0.308 C 
ATOM      9  C   UNL A   1     -19.371 -45.024  16.471  1.00  0.00     0.139 C 
ATOM     10  O   UNL A   1     -21.274 -43.821  15.797  1.00  0.00    -0.252 OA
ENDBRANCH   7   8
ENDBRANCH   1   7
BRANCH   6  11
ATOM     11  C   UNL A   1     -23.679 -46.072  17.668  1.00  0.00     0.339 C 
ATOM     12  O   UNL A   1     -24.091 -46.139  16.520  1.00  0.00    -0.246 OA
BRANCH  11  13
ATOM     13  O   UNL A   1     -23.326 -47.238  18.258  1.00  0.00    -0.478 OA
ATOM     14  H   UNL A   1     -22.812 -47.347  19.063  1.00  0.00     0.297 HD
ENDBRANCH  11  13
ENDBRANCH   6  11
TORSDOF 4
ENDMDL
MODEL 2
REMARK VINA RESULT:    -5.337     18.583     20.752
REMARK INTER + INTRA:          -6.754
REMARK INTER:                  -6.039
REMARK INTRA:                  -0.715
REMARK UNBOUND:                -0.325
REMARK SMILES CC(=O)Oc1ccccc1C(=O)O
REMARK SMILES IDX 5 1 6 2 7 3 8 4 9 5 10 6 4 7 2 8 1 9 3 10 11 11 12 12 13 13
REMARK H PARENT 13 14
REMARK Flexibility Score: inf
ROOT
ATOM      1  C   UNL A   1     -13.635 -44.506  -0.709  1.00  0.00     0.145 A 
ATOM      2  C   UNL A   1     -13.976 -44.946  -2.011  1.00  0.00     0.048 A 
ATOM      3  C   UNL A   1     -14.257 -46.285  -2.266  1.00  0.00     0.004 A 
ATOM      4  C   UNL A   1     -14.208 -47.215  -1.237  1.00  0.00     0.001 A 
ATOM      5  C   UNL A   1     -13.883 -46.809   0.055  1.00  0.00     0.019 A 
ATOM      6  C   UNL A   1     -13.595 -45.458   0.354  1.00  0.00     0.102 A 
ENDROOT
BRANCH   1   7
ATOM      7  O   UNL A   1     -13.367 -43.198  -0.452  1.00  0.00    -0.426 OA
BRANCH   7   8
ATOM      8  C   UNL A   1     -12.274 -42.443  -0.754  1.00  0.00     0.308 C 
ATOM      9  C   UNL A   1     -12.262 -41.687  -2.044  1.00  0.00     0.139 C 
ATOM     10  O   UNL A   1     -11.335 -42.328   0.018  1.00  0.00    -0.252 OA
ENDBRANCH   7   8
ENDBRANCH   1   7
BRANCH   6  11
ATOM     11  C   UNL A   1     -13.257 -45.128   1.791  1.00  0.00     0.339 C 
ATOM     12  O   UNL A   1     -13.863 -45.704   2.681  1.00  0.00    -0.246 OA
BRANCH  11  13
ATOM     13  O   UNL A   1     -12.321 -44.229   2.173  1.00  0.00    -0.478 OA
ATOM     14  H   UNL A   1     -11.767 -44.269   2.957  1.00  0.00     0.297 HD
ENDBRANCH  11  13
ENDBRANCH   6  11
TORSDOF 4
ENDMDL
MODEL 3
REMARK VINA RESULT:    -5.298     17.305     18.436
REMARK INTER + INTRA:          -6.708
REMARK INTER:                  -6.168
REMARK INTRA:                  -0.540
REMARK UNBOUND:                -0.325
REMARK SMILES CC(=O)Oc1ccccc1C(=O)O
REMARK SMILES IDX 5 1 6 2 7 3 8 4 9 5 10 6 4 7 2 8 1 9 3 10 11 11 12 12 13 13
REMARK H PARENT 13 14
REMARK Flexibility Score: inf
ROOT
ATOM      1  C   UNL A   1     -25.677 -35.647   2.170  1.00  0.00     0.145 A 
ATOM      2  C   UNL A   1     -24.896 -35.261   1.055  1.00  0.00     0.048 A 
ATOM      3  C   UNL A   1     -24.397 -36.207   0.165  1.00  0.00     0.004 A 
ATOM      4  C   UNL A   1     -24.665 -37.555   0.359  1.00  0.00     0.001 A 
ATOM      5  C   UNL A   1     -25.438 -37.963   1.443  1.00  0.00     0.019 A 
ATOM      6  C   UNL A   1     -25.965 -37.031   2.367  1.00  0.00     0.102 A 
ENDROOT
BRANCH   1   7
ATOM      7  O   UNL A   1     -26.174 -34.727   3.039  1.00  0.00    -0.426 OA
BRANCH   7   8
ATOM      8  C   UNL A   1     -27.332 -34.010   3.003  1.00  0.00     0.308 C 
ATOM      9  C   UNL A   1     -27.259 -32.544   2.717  1.00  0.00     0.139 C 
ATOM     10  O   UNL A   1     -28.423 -34.539   3.148  1.00  0.00    -0.252 OA
ENDBRANCH   7   8
ENDBRANCH   1   7
BRANCH   6  11
ATOM     11  C   UNL A   1     -26.793 -37.583   3.505  1.00  0.00     0.339 C 
ATOM     12  O   UNL A   1     -26.217 -38.058   4.472  1.00  0.00    -0.246 OA
BRANCH  11  13
ATOM     13  O   UNL A   1     -28.146 -37.593   3.537  1.00  0.00    -0.478 OA
ATOM     14  H   UNL A   1     -28.740 -37.852   2.826  1.00  0.00     0.297 HD
ENDBRANCH  11  13
ENDBRANCH   6  11
TORSDOF 4
ENDMDL
MODEL 4
REMARK VINA RESULT:    -5.290      2.046      2.706
REMARK INTER + INTRA:          -6.698
REMARK INTER:                  -6.198
REMARK INTRA:                  -0.499
REMARK UNBOUND:                -0.325
REMARK SMILES CC(=O)Oc1ccccc1C(=O)O
REMARK SMILES IDX 5 1 6 2 7 3 8 4 9 5 10 6 4 7 2 8 1 9 3 10 11 11 12 12 13 13
REMARK H PARENT 13 14
REMARK Flexibility Score: inf
ROOT
ATOM      1  C   UNL A   1     -22.795 -44.272  19.631  1.00  0.00     0.145 A 
ATOM      2  C   UNL A   1     -23.106 -43.066  20.303  1.00  0.00     0.048 A 
ATOM      3  C   UNL A   1     -24.284 -42.377  20.033  1.00  0.00     0.004 A 
ATOM      4  C   UNL A   1     -25.180 -42.870  19.095  1.00  0.00     0.001 A 
ATOM      5  C   UNL A   1     -24.904 -44.059  18.424  1.00  0.00     0.019 A 
ATOM      6  C   UNL A   1     -23.719 -44.789  18.673  1.00  0.00     0.102 A 
ENDROOT
BRANCH   1   7
ATOM      7  O   UNL A   1     -21.649 -44.954  19.895  1.00  0.00    -0.426 OA
BRANCH   7   8
ATOM      8  C   UNL A   1     -20.859 -44.962  21.005  1.00  0.00     0.308 C 
ATOM      9  C   UNL A   1     -21.326 -45.712  22.211  1.00  0.00     0.139 C 
ATOM     10  O   UNL A   1     -19.766 -44.418  21.023  1.00  0.00    -0.252 OA
ENDBRANCH   7   8
ENDBRANCH   1   7
BRANCH   6  11
ATOM     11  C   UNL A   1     -23.522 -46.068  17.891  1.00  0.00     0.339 C 
ATOM     12  O   UNL A   1     -23.833 -46.087  16.711  1.00  0.00    -0.246 OA
BRANCH  11  13
ATOM     13  O   UNL A   1     -23.018 -47.214  18.407  1.00  0.00    -0.478 OA
ATOM     14  H   UNL A   1     -22.222 -47.673  18.126  1.00  0.00     0.297 HD
ENDBRANCH  11  13
ENDBRANCH   6  11
TORSDOF 4
ENDMDL
MODEL 5
REMARK VINA RESULT:    -5.247     15.842     17.230
REMARK INTER + INTRA:          -6.646
REMARK INTER:                  -5.986
REMARK INTRA:                  -0.659
REMARK UNBOUND:                -0.325
REMARK SMILES CC(=O)Oc1ccccc1C(=O)O
REMARK SMILES IDX 5 1 6 2 7 3 8 4 9 5 10 6 4 7 2 8 1 9 3 10 11 11 12 12 13 13
REMARK H PARENT 13 14
REMARK Flexibility Score: inf
ROOT
ATOM      1  C   UNL A   1     -25.218 -37.678   2.117  1.00  0.00     0.145 A 
ATOM      2  C   UNL A   1     -25.283 -36.954   0.903  1.00  0.00     0.048 A 
ATOM      3  C   UNL A   1     -24.126 -36.509   0.269  1.00  0.00     0.004 A 
ATOM      4  C   UNL A   1     -22.882 -36.776   0.823  1.00  0.00     0.001 A 
ATOM      5  C   UNL A   1     -22.788 -37.494   2.012  1.00  0.00     0.019 A 
ATOM      6  C   UNL A   1     -23.939 -37.965   2.684  1.00  0.00     0.102 A 
ENDROOT
BRANCH   1   7
ATOM      7  O   UNL A   1     -26.343 -38.122   2.738  1.00  0.00    -0.426 OA
BRANCH   7   8
ATOM      8  C   UNL A   1     -27.089 -37.556   3.727  1.00  0.00     0.308 C 
ATOM      9  C   UNL A   1     -27.953 -36.383   3.391  1.00  0.00     0.139 C 
ATOM     10  O   UNL A   1     -27.109 -38.010   4.861  1.00  0.00    -0.252 OA
ENDBRANCH   7   8
ENDBRANCH   1   7
BRANCH   6  11
ATOM     11  C   UNL A   1     -23.721 -38.736   3.966  1.00  0.00     0.339 C 
ATOM     12  O   UNL A   1     -22.790 -38.417   4.690  1.00  0.00    -0.246 OA
BRANCH  11  13
ATOM     13  O   UNL A   1     -24.489 -39.770   4.381  1.00  0.00    -0.478 OA
ATOM     14  H   UNL A   1     -25.219 -39.734   5.005  1.00  0.00     0.297 HD
ENDBRANCH  11  13
ENDBRANCH   6  11
TORSDOF 4
ENDMDL
MODEL 6
REMARK VINA RESULT:    -5.227     15.744     16.683
REMARK INTER + INTRA:          -6.622
REMARK INTER:                  -5.888
REMARK INTRA:                  -0.734
REMARK UNBOUND:                -0.325
REMARK SMILES CC(=O)Oc1ccccc1C(=O)O
REMARK SMILES IDX 5 1 6 2 7 3 8 4 9 5 10 6 4 7 2 8 1 9 3 10 11 11 12 12 13 13
REMARK H PARENT 13 14
REMARK Flexibility Score: inf
ROOT
ATOM      1  C   UNL A   1     -25.233 -36.876   3.118  1.00  0.00     0.145 A 
ATOM      2  C   UNL A   1     -24.212 -35.961   2.767  1.00  0.00     0.048 A 
ATOM      3  C   UNL A   1     -24.485 -34.606   2.610  1.00  0.00     0.004 A 
ATOM      4  C   UNL A   1     -25.774 -34.128   2.801  1.00  0.00     0.001 A 
ATOM      5  C   UNL A   1     -26.797 -35.005   3.154  1.00  0.00     0.019 A 
ATOM      6  C   UNL A   1     -26.559 -36.387   3.326  1.00  0.00     0.102 A 
ENDROOT
BRANCH   1   7
ATOM      7  O   UNL A   1     -24.972 -38.201   3.280  1.00  0.00    -0.426 OA
BRANCH   7   8
ATOM      8  C   UNL A   1     -24.357 -38.863   4.299  1.00  0.00     0.308 C 
ATOM      9  C   UNL A   1     -22.923 -39.255   4.136  1.00  0.00     0.139 C 
ATOM     10  O   UNL A   1     -24.927 -39.098   5.353  1.00  0.00    -0.252 OA
ENDBRANCH   7   8
ENDBRANCH   1   7
BRANCH   6  11
ATOM     11  C   UNL A   1     -27.740 -37.247   3.713  1.00  0.00     0.339 C 
ATOM     12  O   UNL A   1     -28.807 -37.065   3.147  1.00  0.00    -0.246 OA
BRANCH  11  13
ATOM     13  O   UNL A   1     -27.708 -38.219   4.655  1.00  0.00    -0.478 OA
ATOM     14  H   UNL A   1     -27.606 -39.163   4.508  1.00  0.00     0.297 HD
ENDBRANCH  11  13
ENDBRANCH   6  11
TORSDOF 4
ENDMDL
MODEL 7
REMARK VINA RESULT:    -5.217     13.382     14.838
REMARK INTER + INTRA:          -6.610
REMARK INTER:                  -5.889
REMARK INTRA:                  -0.720
REMARK UNBOUND:                -0.325
REMARK SMILES CC(=O)Oc1ccccc1C(=O)O
REMARK SMILES IDX 5 1 6 2 7 3 8 4 9 5 10 6 4 7 2 8 1 9 3 10 11 11 12 12 13 13
REMARK H PARENT 13 14
REMARK Flexibility Score: inf
ROOT
ATOM      1  C   UNL A   1     -22.003 -40.792   3.404  1.00  0.00     0.145 A 
ATOM      2  C   UNL A   1     -23.139 -39.962   3.245  1.00  0.00     0.048 A 
ATOM      3  C   UNL A   1     -23.558 -39.116   4.267  1.00  0.00     0.004 A 
ATOM      4  C   UNL A   1     -22.860 -39.072   5.465  1.00  0.00     0.001 A 
ATOM      5  C   UNL A   1     -21.734 -39.871   5.647  1.00  0.00     0.019 A 
ATOM      6  C   UNL A   1     -21.275 -40.741   4.631  1.00  0.00     0.102 A 
ENDROOT
BRANCH   1   7
ATOM      7  O   UNL A   1     -21.583 -41.615   2.407  1.00  0.00    -0.426 OA
BRANCH   7   8
ATOM      8  C   UNL A   1     -22.058 -42.825   2.000  1.00  0.00     0.308 C 
ATOM      9  C   UNL A   1     -23.076 -42.863   0.905  1.00  0.00     0.139 C 
ATOM     10  O   UNL A   1     -21.641 -43.873   2.467  1.00  0.00    -0.252 OA
ENDBRANCH   7   8
ENDBRANCH   1   7
BRANCH   6  11
ATOM     11  C   UNL A   1     -20.041 -41.560   4.933  1.00  0.00     0.339 C 
ATOM     12  O   UNL A   1     -19.068 -40.999   5.412  1.00  0.00    -0.246 OA
BRANCH  11  13
ATOM     13  O   UNL A   1     -19.928 -42.891   4.711  1.00  0.00    -0.478 OA
ATOM     14  H   UNL A   1     -20.645 -43.524   4.614  1.00  0.00     0.297 HD
ENDBRANCH  11  13
ENDBRANCH   6  11
TORSDOF 4
ENDMDL
MODEL 8
REMARK VINA RESULT:    -5.153     20.535     22.566
REMARK INTER + INTRA:          -6.533
REMARK INTER:                  -5.804
REMARK INTRA:                  -0.729
REMARK UNBOUND:                -0.325
REMARK SMILES CC(=O)Oc1ccccc1C(=O)O
REMARK SMILES IDX 5 1 6 2 7 3 8 4 9 5 10 6 4 7 2 8 1 9 3 10 11 11 12 12 13 13
REMARK H PARENT 13 14
REMARK Flexibility Score: inf
ROOT
ATOM      1  C   UNL A   1     -12.647 -44.375  -2.060  1.00  0.00     0.145 A 
ATOM      2  C   UNL A   1     -13.204 -45.655  -1.831  1.00  0.00     0.048 A 
ATOM      3  C   UNL A   1     -13.581 -46.055  -0.552  1.00  0.00     0.004 A 
ATOM      4  C   UNL A   1     -13.417 -45.194   0.524  1.00  0.00     0.001 A 
ATOM      5  C   UNL A   1     -12.878 -43.925   0.326  1.00  0.00     0.019 A 
ATOM      6  C   UNL A   1     -12.486 -43.481  -0.958  1.00  0.00     0.102 A 
ENDROOT
BRANCH   1   7
ATOM      7  O   UNL A   1     -12.283 -43.975  -3.308  1.00  0.00    -0.426 OA
BRANCH   7   8
ATOM      8  C   UNL A   1     -13.044 -43.601  -4.375  1.00  0.00     0.308 C 
ATOM      9  C   UNL A   1     -13.218 -44.567  -5.503  1.00  0.00     0.139 C 
ATOM     10  O   UNL A   1     -13.624 -42.528  -4.410  1.00  0.00    -0.252 OA
ENDBRANCH   7   8
ENDBRANCH   1   7
BRANCH   6  11
ATOM     11  C   UNL A   1     -11.917 -42.085  -1.059  1.00  0.00     0.339 C 
ATOM     12  O   UNL A   1     -11.201 -41.678  -0.158  1.00  0.00    -0.246 OA
BRANCH  11  13
ATOM     13  O   UNL A   1     -12.143 -41.235  -2.089  1.00  0.00    -0.478 OA
ATOM     14  H   UNL A   1     -11.919 -40.301  -2.127  1.00  0.00     0.297 HD
ENDBRANCH  11  13
ENDBRANCH   6  11
TORSDOF 4
ENDMDL
MODEL 9
REMARK VINA RESULT:    -5.139      2.113      4.161
REMARK INTER + INTRA:          -6.515
REMARK INTER:                  -6.037
REMARK INTRA:                  -0.478
REMARK UNBOUND:                -0.325
REMARK SMILES CC(=O)Oc1ccccc1C(=O)O
REMARK SMILES IDX 5 1 6 2 7 3 8 4 9 5 10 6 4 7 2 8 1 9 3 10 11 11 12 12 13 13
REMARK H PARENT 13 14
REMARK Flexibility Score: inf
ROOT
ATOM      1  C   UNL A   1     -21.145 -45.094  17.865  1.00  0.00     0.145 A 
ATOM      2  C   UNL A   1     -21.176 -44.932  19.271  1.00  0.00     0.048 A 
ATOM      3  C   UNL A   1     -20.149 -44.275  19.941  1.00  0.00     0.004 A 
ATOM      4  C   UNL A   1     -19.071 -43.763  19.233  1.00  0.00     0.001 A 
ATOM      5  C   UNL A   1     -19.017 -43.901  17.848  1.00  0.00     0.019 A 
ATOM      6  C   UNL A   1     -20.043 -44.558  17.131  1.00  0.00     0.102 A 
ENDROOT
BRANCH   1   7
ATOM      7  O   UNL A   1     -22.149 -45.728  17.203  1.00  0.00    -0.426 OA
BRANCH   7   8
ATOM      8  C   UNL A   1     -23.321 -45.246  16.702  1.00  0.00     0.308 C 
ATOM      9  C   UNL A   1     -23.467 -43.770  16.515  1.00  0.00     0.139 C 
ATOM     10  O   UNL A   1     -24.229 -45.987  16.358  1.00  0.00    -0.252 OA
ENDBRANCH   7   8
ENDBRANCH   1   7
BRANCH   6  11
ATOM     11  C   UNL A   1     -19.885 -44.648  15.630  1.00  0.00     0.339 C 
ATOM     12  O   UNL A   1     -19.762 -43.614  14.992  1.00  0.00    -0.246 OA
BRANCH  11  13
ATOM     13  O   UNL A   1     -19.869 -45.804  14.927  1.00  0.00    -0.478 OA
ATOM     14  H   UNL A   1     -20.482 -46.069  14.235  1.00  0.00     0.297 HD
ENDBRANCH  11  13
ENDBRANCH   6  11
TORSDOF 4
ENDMDL
